Circuit: * C:\Users\Doug\Documents\GitHub\MultiComp\MultiComp (VHDL Template)\Components\SoundGen\Documentation\SPICE_Simulations\Draft1.asc

Direct Newton iteration for .op point succeeded.

Date: Thu May 02 06:47:41 2019
Total elapsed time: 0.119 seconds.

tnom = 27
temp = 27
method = modified trap
totiter = 3228
traniter = 3214
tranpoints = 1395
accept = 1342
rejected = 53
matrix size = 15
fillins = 2
solver = Normal
Matrix Compiler1: 800 bytes object code size  0.4/0.3/[0.1]
Matrix Compiler2: 1.12 KB object code size  0.2/0.4/[0.2]

