Circuit: * C:\Users\dgilliland\Documents\GitHub\MultiComp\MultiComp (VHDL Template)\Components\SoundGen\RC_Shaper.asc

WARNING: Specified period is not longer than the sum of Trise, Tfall, and Ton for v1.  Increasing period to 0.001
.OP point found by inspection.

Date: Mon Apr 22 09:36:33 2019
Total elapsed time: 0.047 seconds.

tnom = 27
temp = 27
method = modified trap
totiter = 2254
traniter = 2254
tranpoints = 1128
accept = 1114
rejected = 14
matrix size = 3
fillins = 0
solver = Normal
Matrix Compiler1: 50 bytes object code size  0.0/0.0/[0.0]
Matrix Compiler2:      15 opcodes  0.0/[0.0]/0.0

