Circuit: * C:\Users\dgilliland\Documents\GitHub\MultiComp\MultiComp (VHDL Template)\Components\SoundGen\Draft1.asc

Direct Newton iteration for .op point succeeded.

Date: Wed Apr 24 11:23:27 2019
Total elapsed time: 0.089 seconds.

tnom = 27
temp = 27
method = modified trap
totiter = 2091
traniter = 2088
tranpoints = 1045
accept = 1045
rejected = 0
matrix size = 6
fillins = 2
solver = Normal
Matrix Compiler1: 360 bytes object code size  0.1/0.0/[0.0]
Matrix Compiler2: off  [0.1]/0.1/0.1

