Circuit: * C:\Users\dgilliland\Documents\GitHub\MultiComp\MultiComp (VHDL Template)\Components\SoundGen\Draft1.asc

Limiting rise time of source v3 to 0.025
Limiting fall time of source v3 to 0.025
Direct Newton iteration for .op point succeeded.

Date: Mon Apr 29 16:55:31 2019
Total elapsed time: 0.117 seconds.

tnom = 27
temp = 27
method = modified trap
totiter = 2814
traniter = 2776
tranpoints = 1141
accept = 1108
rejected = 33
matrix size = 20
fillins = 8
solver = Normal
Matrix Compiler1: 1.53 KB object code size  0.2/0.1/[0.1]
Matrix Compiler2: off  [0.1]/0.2/0.1

